Version 4
SHEET 1 880 680
WIRE 320 -256 320 -304
WIRE 320 -112 320 -176
WIRE 320 32 320 -32
WIRE 320 160 320 112
WIRE 144 208 16 208
WIRE 256 208 224 208
WIRE 16 272 16 208
WIRE 320 352 320 256
WIRE 16 400 16 352
FLAG 320 352 0
FLAG 320 -304 0
FLAG 16 400 0
SYMBOL res 240 192 R90
WINDOW 0 0 56 VBottom 2
WINDOW 3 32 56 VTop 2
SYMATTR InstName R1
SYMATTR Value 1k
SYMBOL npn 256 160 R0
SYMATTR InstName Q1
SYMATTR Value BC547B
SYMBOL res 304 16 R0
SYMATTR InstName R2
SYMATTR Value 8
SYMBOL voltage 320 -160 M180
WINDOW 0 24 96 Left 2
WINDOW 3 24 16 Left 2
WINDOW 123 0 0 Left 0
WINDOW 39 0 0 Left 0
SYMATTR InstName V1
SYMATTR Value 3.3
SYMBOL voltage 16 256 R0
WINDOW 123 0 0 Left 0
WINDOW 39 0 0 Left 0
SYMATTR InstName V2
SYMATTR Value PULSE(0 3.3 0 0 0 500u 1m)
SYMBOL res 304 -128 R0
SYMATTR InstName R3
SYMATTR Value 100
TEXT -16 424 Left 2 !.tran 0 20m 0 20u startup
TEXT 392 72 Left 2 ;Lautsprecher
